Circuit: * U:\Windows\Bureau\Nouveau dossier\caoteur\Draft1.asc

Direct Newton iteration for .op point succeeded.

Date: Fri Feb 12 12:08:56 2021
Total elapsed time: 0.150 seconds.

tnom = 27
temp = 27
method = modified trap
totiter = 8354
traniter = 8332
tranpoints = 4167
accept = 2691
rejected = 1476
matrix size = 16
fillins = 5
solver = Normal
Matrix Compiler1: 692 bytes object code size  0.2/0.1/[0.1]
Matrix Compiler2: 1.30 KB object code size  0.1/0.2/[0.1]

